Pcp_File_Version=4
* METEOROLOGICAL PARAMETERS AND INFORMATION |||||||||||||||||||||||||||||||
 MeteoRecords Radiation Penman-Hargreaves
         2192        0       f
  lEnBal  lDaily  lDummy  lDummy  lDummy  lDummy  lDummy  lDummy  lDummy  lDummy
       f       f       f       f       f       t       f       f       f       f
 Latitude  Altitude
     53.5        100
 ShortWaveRadA  ShortWaveRadB
          0.25            0.5
 LongWaveRadA   LongWaveRadB
           0.9            0.1
 LongWaveRadA1  LongWaveRadB1
          0.34         -0.139
 WindHeight     TempHeight
        200            200
 iCrop (=0: no crop, =1: constant, =2: table, =3: daily)  SunShine  RelativeHum
         1                                                0         0
 iLai (=0: given, =1: grass, =2; alfalfa, =3: surface fraction)  rExtinct
    0                                                              0.463
 Interception
    1
CropHeight     Albedo        LAI      rRoot
        30       0.23          3        150
aInterc [mm]
      0.37
Daily values
       t        Rad        TMax        TMin     RHMean      Wind    SunHours CropHeight     Albedo   LAI(SCF)      rRoot
      [T]  [MJ/m2/d]       [C]         [C]       [%]     [km/d]     [hour]      [L]           [-]        [-]        [L]
       105        300       11.2        4.7       81.5     328.32        5.3 
       106        300       10.1        0.3       65.3     328.32       11.2 
       107        300       12.9       -1.5       61.8     328.32       10.1 
       108        300       13.6        3.5         64     250.56        7.4 
       109        300       22.2          4       67.1      345.6       12.9 
       110        300       19.3        9.1       71.6      302.4        7.4 
       111        300       18.7       10.6       83.5     285.12        8.3 
       112        300       21.4          6       78.1     241.92        8.8 
       113        300       20.4        7.7       77.6     241.92        6.1 
       114        300       21.4          8       61.5     285.12       10.3 
       115        300       20.1        5.8       57.6     250.56       12.7 
       116        300       19.2          7       72.1      259.2        7.1 
       117        300       16.5        8.7       79.1     328.32        0.8 
       118        300       20.1        4.8       59.3      259.2       13.7 
       119        300       20.8        3.6       54.4      172.8       14.1 
       120        300         20        4.8       55.9     224.64       12.3 
       121        300       16.9        5.4       66.4     336.96       13.3 
       122        300        9.4          0       57.5     414.72        3.9 
       123        300       12.7        0.5       52.9     285.12       10.7 
       124        300       11.1        0.6       63.3     311.04        6.1 
       125        300       12.7       -0.4       61.3     241.92        7.9 
       126        300       14.1          5       51.8      345.6          7 
       127        300       18.6        8.7         76     336.96        6.4 
       128        300       16.9        4.4       79.4     328.32        7.8 
       129        300         16        9.3         91     336.96          1 
       130        300       14.1        7.8       86.4      388.8        4.7 
       131        300       14.7        9.6       81.8     466.56        7.6 
       132        300       13.1        3.7       86.6      302.4        5.3 
       133        300       12.8        6.6         85     328.32          6 
       134        300       13.5        4.2       76.3     198.72        7.3 
       135        300       15.3          2       73.6     354.24          9 
       136        300       16.6        4.1       49.1      475.2        9.2 
       137        300       17.8        9.4       63.3     440.64        5.3 
       138        300       19.7       11.2         81     250.56          8 
       139        300       19.1        9.1       77.3     267.84         10 
       140        300       24.8       10.2         68      172.8       14.2 
       141        300       26.2       10.4       63.6     198.72       14.1 
       142        300       27.7       15.7         57      388.8       14.8 
       143        300       28.6       16.9       56.9     414.72       14.8 
       144        300       25.4       16.4         78     241.92        8.3 
       145        300       22.2         14       76.8     241.92       12.2 
       146        300       24.1        9.2       62.9     311.04       14.6 
       147        300       20.3       10.8       79.8     483.84        5.4 
       148        300       11.2        8.3       78.9     673.92        0.1 
       149        300       10.3        6.7       78.3     397.44       0.09 
       150        300       18.5        5.1       64.1     250.56        7.3 
       151        300       18.8        7.8       73.3     250.56       13.6 
       152        300       19.8        6.6       69.9     224.64       12.2 
       153        300       17.1        7.8       77.3     414.72          4 
       154        300       13.7       10.1       96.4     164.16       0.09 
       155        300       18.8       11.4       83.4      172.8        4.3 
       156        300         24       11.9       80.4     267.84        7.2 
       157        300       21.5        9.9       65.4     155.52       10.8 
       158        300       24.5        9.5       59.6      345.6       14.4 
       159        300       28.8       13.9       53.5     164.16       14.6 
       160        300       27.8       16.1       69.3     250.56       12.6 
       161        300       28.5       12.6       59.8     198.72       13.8 
       162        300       27.3       13.1       59.8     138.24       11.6 
       163        300       23.1       16.3       70.4      302.4       12.9 
       164        300       17.4       12.1       83.3     293.76        6.1 
       165        300       16.4       10.8       83.4     371.52        4.8 
       166        300       18.3        7.6       56.8     336.96       16.1 
       167        300       19.9        4.3         72     138.24         10 
       168        300       20.6        8.6       71.1     224.64       11.5 
       169        300       22.6        7.2       63.4     241.92       12.4 
       170        300       20.1        8.8       83.6     380.16        3.4 
       171        300       18.4       10.8       77.8     328.32        7.7 
       172        300       16.3       10.5       85.1     336.96        3.2 
       173        300       16.4        9.3       77.1      302.4        9.7 
       174        300       16.7        8.6       72.4      388.8        9.7 
       175        300       18.2        9.7       67.3     285.12       14.6 
       176        300       18.1        5.6       73.6        216       11.2 
       177        300       18.8        6.8       73.4     285.12       10.8 
       178        300       21.1        6.3       62.6     120.96       12.2 
       179        300       22.2       11.2       74.4     224.64        6.6 
       180        300       23.2       13.7       85.1      259.2        2.4 
       181        300       19.3       12.2       75.6        216        3.6 
       182        300       19.1       11.7       69.4     198.72        8.8 
       183        300       19.8        8.8       70.5      345.6        8.3 
       184        300       21.5        9.3       66.4      259.2       12.3 
       185        300       28.5       10.9       51.5     224.64       13.4 
       186        300       28.6       14.9       54.8     241.92        9.2 
       187        300         28       16.9       73.1     181.44        6.6 
       188        300       31.2       17.2       69.5     224.64       11.4 
       189        300       28.6       18.1       79.4     380.16        6.4 
       190        300       29.7       19.7       56.3     423.36       12.5 
       191        300       27.6       16.8         57     414.72       13.9 
       192        300       24.3       16.4       67.3     440.64       12.8 
       193        300       17.3       14.4       86.1     250.56       0.09 
       194        300       22.3       12.7       77.6     285.12        3.5 
       195        300       24.9       12.9         80     250.56        2.3 
       196        300       24.8       14.3         70     198.72       10.8 
       197        300       25.8       13.5       65.3      172.8       13.1 
       198        300       26.2       15.5       64.5        216        7.2 
       199        300       28.2         12       61.6     181.44       14.8 
       200        300       29.5       13.1       55.8     207.36       11.9 
       201        300       27.8       16.1       66.1     293.76       10.9 
       202        300         27       15.7       64.4     380.16       12.8 
       203        300       28.1         15       61.6     414.72         14 
       204        300       26.5       14.8       69.1     336.96       10.1 
       205        300         27       14.9       58.8     371.52        7.5 
       206        300       26.4       16.7       59.8     336.96        6.6 
       207        300       26.1       16.7       71.9     285.12        8.4 
       208        300       31.4       16.2       58.9     224.64        9.7 
       209        300       30.3       17.1       80.8     241.92        7.1 
       210        300       31.7       16.4       63.8     224.64       12.7 
       211        300       30.6       18.6       63.3     250.56       10.9 
       212        300       23.7       18.5       74.9     241.92        2.8 
       213        300       26.6       10.9       60.8     198.72       13.2 
       214        300         31       15.2       62.6     285.12        8.6 
       215        300       33.6       20.7       50.6      388.8       12.2 
       216        300         30       17.9       71.4     241.92          2 
       217        300       20.9       17.5       89.9     250.56        1.2 
       218        300       23.7       14.3       72.9     250.56        7.1 
       219        300       27.1       12.5         65     138.24        9.8 
       220        300       24.5       14.7         83     138.24        3.8 
       221        300       28.3         14       69.9     267.84       11.9 
       222        300       26.9       16.3       68.5      259.2         11 
       223        300       25.2       19.1       76.3      259.2        0.3 
       224        300       24.1       10.4         73     293.76       11.7 
       225        300       24.3        9.2         66     293.76        9.7 
       226        300       21.7       14.5       81.1     224.64        5.3 
       227        300       21.5       12.6       81.3     267.84        4.9 
       228        300       18.9       10.6       81.9     267.84        8.6 
       229        300       18.5       10.3       78.3     414.72        3.4 
       230        300       19.3         13       77.3     527.04        3.6 
       231        300       19.2       10.3       72.4      475.2        5.5 
       232        300       16.8       10.3       71.9     527.04        4.7 
       233        300         18        7.4       74.8     293.76        7.1 
       234        300       19.5        6.4       71.9     250.56        7.1 
       235        300       19.8        8.9       69.3     328.32        7.9 
       236        300       16.9        8.1       82.6      129.6        4.3 
       237        300       17.7        7.8       70.9     371.52       10.1 
       238        300       18.2        4.4       72.9     181.44        8.8 
       239        300       19.3          7       75.9      259.2        7.8 
       240        300       20.6       11.6       73.9     207.36        9.4 
       241        300       22.3        7.5         66     164.16         12 
       242        300       21.9       14.3         76     207.36          7 
       243        300       19.6       12.2       83.9     164.16          1 
       244        300       17.7       12.8       80.1     328.32       0.09 
       245        300       17.7        9.9         76      302.4        5.4 
       246        300       20.1         10       72.8     293.76       12.5 
       247        300       22.1        8.6       67.5      259.2       12.8 
       248        300       23.3        9.6         61      259.2       12.6 
       249        300       23.6          6       63.4     164.16       12.5 
       250        300       24.9        9.9       59.5      172.8       12.2 
       251        300       22.2       12.6       80.8     164.16        6.7 
       252        300       18.8       10.1       79.3        216        5.9 
       253        300       17.1       11.4         90     224.64        1.5 
       254        300       19.2        7.8       84.8     224.64        7.7 
       255        300       23.5         14       85.3     354.24        6.1 
       256        300       26.3       12.9       77.8     285.12        8.8 
       257        300       23.1       14.9         72      302.4        4.4 
       258        300       23.8       10.6       71.5     293.76       11.2 
       259        300       22.2        7.4       62.9     207.36         12 
       260        300       21.2        8.8         64     336.96       11.9 
       261        300       22.3        9.2       58.9      302.4       11.6 
       262        300       21.8       12.2       73.1        216          9 
       263        300       22.8        7.7       79.5     112.32       10.4 
       264        300       19.3        9.5       88.3     138.24        2.5 
       265        300       16.2        9.9         83     328.32        4.4 
       266        300       11.1        6.5       84.5     371.52        4.5 
       267        300       13.6        1.4       77.3      302.4        6.4 
       268        300       13.5        6.6       90.3     336.96        0.9 
       269        300       14.4        7.8       93.5     328.32        0.2 
       270        300         17        9.5         75     267.84       10.7 
       271        300       18.4        6.3       79.1      259.2        9.5 
       272        300       19.9        7.2       83.5     164.16        6.9 
       273        300       15.9       10.3       90.1     112.32       0.09 
       274        300         15        9.9       87.3      172.8       0.09 
       275        300         18        5.7         81     120.96        9.8 
       276        300       18.4          5       74.1       86.4       10.7 
       277        300       16.9        3.1         71      172.8       10.6 
       278        300       15.8        0.9       67.1     224.64       10.6 
       279        300       14.5        0.1       79.4     241.92        9.7 
       280        300       16.8        6.5       77.5     414.72        2.9 
       281        300       17.9       11.3       79.1     354.24        6.5 
       282        300       20.1       10.7       81.6     328.32        1.1 
       283        300       19.8       12.7       80.6     207.36        0.2 
       284        300       15.1       10.5       88.4     207.36       0.09 
       285        300       15.7       10.3       90.5     207.36       0.09 
       286        300       18.8        5.8         87      259.2       0.09 
       287        300       15.8       12.3       96.1      172.8       0.09 
       288        300       12.8          9       94.5      172.8       0.09 
       289        300       13.8        9.2       93.8     181.44        2.9 
       290        300       13.1        5.8         93     120.96        0.7 
       291        300         11        8.1       89.3     207.36       0.09 
       292        300       18.4        8.8       87.6      475.2        8.3 
       293        300       16.3       10.3       88.6     440.64        1.7 
       294        300       11.8       10.2       91.8     311.04        0.1 
       295        300         12        9.8       94.4     328.32       0.09 
       296        300        9.8        2.8       97.4     241.92       0.09 
       297        300        7.3        1.5       78.5     311.04        4.8 
       298        300        2.5       -2.3       87.5     397.44        2.1 
       299        300        9.1        1.8       95.3     285.12       0.09 
       300        300       12.8        7.2       91.3     293.76        4.2 
       301        300       12.2        0.5       86.3        216        6.3 
       302        300       11.2       -0.4       81.9      259.2        9.2 
       303        300       10.7        0.2         92     155.52        4.1 
       304        300        5.6         -2       99.9     198.72        0.1 
       305        300        9.8        4.4       97.6     181.44       0.09 
       306        300         13        5.6         95     311.04        4.9 
       307        300         14        7.2         91     371.52        7.3 
       308        300       11.8        3.7         92      302.4        6.5 
       309        300       13.5        3.7       92.3     198.72        6.3 
       310        300        9.4        2.6       99.3     181.44       0.09 
       311        300        9.6        2.9       96.3     155.52        2.8 
       312        300        8.4       -0.5       97.9     181.44        0.9 
       313        300        7.9       -0.4       99.5     250.56       0.09 
       314        300       11.2        7.3       98.5      259.2       0.09 
       315        300       10.8        5.2       97.9     164.16        1.4 
       316        300       11.6        7.2       96.1     311.04        2.7 
       317        300        7.2        5.7       96.4     250.56       0.09 
       318        300        8.8        6.9         95     241.92       0.09 
       319        300        7.5        4.7         97      388.8       0.09 
       320        300        4.7        3.1       96.6     457.92       0.09 
       321        300        5.3        3.4       97.9      302.4       0.09 
       322        300          5        1.7       96.1      302.4       0.09 
       323        300        1.8       -0.2       96.6     224.64       0.09 
       324        300        1.6        0.5       99.5      77.76       0.09 
       325        300        3.7        1.1       99.1      129.6       0.09 
       326        300        5.2        3.5       97.9     112.32       0.09 
       327        300        4.6        1.7       92.3     354.24        0.2 
       328        300        3.6        0.5       92.1     423.36        0.5 
       329        300        6.3        2.2       98.8      172.8       0.09 
       330        300          6       -0.1       95.4     138.24        3.1 
       331        300          2       -2.5       99.1     241.92       0.09 
       332        300        0.4       -3.3       86.3     311.04        3.1 
       333        300       -1.8       -5.9       83.5     311.04        7.1 
       334        300       -2.2       -6.8       82.4     371.52        6.2 
       335        300       -4.3       -9.1       89.3      388.8       0.09 
       336        300       -1.6       -6.1       81.8     311.04        4.8 
       337        300       -2.5       -5.8       89.1      129.6       0.09 
       338        300       -0.7       -3.4       97.6     164.16       0.09 
       339        300       -1.5       -2.7        100      302.4       0.09 
       340        300        1.6       -1.8        100     241.92       0.09 
       341        300        1.8       -0.8       97.4     241.92       0.09 
       342        300        2.8       -0.9       97.1     397.44       0.09 
       343        300        2.2       -0.5       99.6     267.84       0.09 
       344        300        0.7       -2.3       92.3     509.76       0.09 
       345        300        2.3       -0.6       95.6     509.76       0.09 
       346        300        5.6        1.4         92     682.56       0.09 
       347        300        7.3        2.3         90     552.96        0.2 
       348        300        2.8       -0.8       96.9     285.12       0.09 
       349        300        4.9       -1.4       94.6      388.8        0.8 
       350        300        4.2        2.9         93     414.72       0.09 
       351        300        4.2          0       90.6     440.64        2.6 
       352        300        7.3          0       97.8        432       0.09 
       353        300       10.8        6.9       93.8      561.6       0.09 
       354        300        7.1        2.4       87.1      734.4        0.2 
       355        300        4.6        0.4       89.5     483.84        0.2 
       356        300        9.1        3.5       94.8     656.64       0.09 
       357        300        7.8        5.5       95.4     354.24       0.09 
       358        300        8.2        5.1       92.5     552.96       0.09 
       359        300        5.5       -0.2       92.8     440.64       0.09 
       360        300       -0.2       -6.2       93.9     164.16          7 
       361        300       -3.9         -6         92     181.44       0.09 
       362        300       -1.6      -10.4       91.5     207.36        5.2 
       363        300       -3.2       -7.2       92.6     198.72        5.3 
       364        300       -4.3      -11.3       98.1     336.96       0.09 
       365        300          1       -4.6       99.8     440.64       0.09 
       366        300        3.9          1       93.6     371.52       0.09 
       367        300        6.2        0.8       89.4      777.6       0.09 
       368        300        4.7        0.9       90.1     673.92       0.09 
       369        300        3.5        0.9       77.3     423.36        6.5 
       370        300        2.6       -1.1       85.3     328.32        6.3 
       371        300       -1.1       -6.7       89.6     241.92        6.5 
       372        300       -3.3       -7.4       80.9        432        1.8 
       373        300        1.3       -3.3       98.9     509.76       0.09 
       374        300        4.4        1.2       94.4     639.36       0.09 
       375        300        9.9        2.7       88.4     596.16       0.09 
       376        300        7.2          1         80     829.44       0.09 
       377        300        4.8        1.2       94.3        648       0.09 
       378        300        8.4        4.5       87.3      691.2       0.09 
       379        300        9.5        1.9       86.4     501.12        2.4 
       380        300        2.9       -0.5       88.8     414.72        1.2 
       381        300        7.1        2.9       79.1     380.16        0.1 
       382        300        5.5        0.2       96.4     224.64        0.2 
       383        300        0.2       -3.3       99.5     241.92       0.09 
       384        300        0.3       -1.7         99     293.76        0.1 
       385        300       -0.3       -1.7       99.3     336.96       0.09 
       386        300        0.6       -0.5        100     181.44       0.09 
       387        300        0.3       -1.2       96.6     120.96        0.9 
       388        300        0.3         -3         96     241.92       0.09 
       389        300       -0.4       -5.2       92.5      95.04        0.3 
       390        300          1       -3.6       95.4     112.32       0.09 
       391        300        0.4         -1       89.8     336.96       0.09 
       392        300        2.2       -1.2       99.3     328.32       0.09 
       393        300        1.5          0         96     440.64       0.09 
       394        300        2.8       -0.3       87.1     552.96        2.1 
       395        300        0.6       -2.4       92.3      345.6       0.09 
       396        300        0.2       -2.1       97.3     440.64        0.2 
       397        300        1.9       -5.1       89.5     509.76        3.3 
       398        300        0.8       -1.2       90.1     483.84        2.3 
       399        300        0.4       -4.7       93.1     380.16        1.2 
       400        300       -0.2         -5       95.4      95.04        0.7 
       401        300        0.2       -5.5       93.1     112.32        4.2 
       402        300       -0.3       -8.2         95     164.16        6.3 
       403        300        2.6       -3.2       97.1        432       0.09 
       404        300          3       -2.9       69.9        432        3.7 
       405        300        4.4       -2.9       93.1     328.32       0.09 
       406        300        3.1        1.3         98     241.92       0.09 
       407        300        3.3        1.2         95     224.64       0.09 
       408        300        2.8          0       92.3     336.96       0.09 
       409        300        3.4       -2.7         97     224.64        3.3 
       410        300        4.4       -5.4       90.1     155.52        8.8 
       411        300        2.3         -3       95.3     423.36        4.2 
       412        300        0.5       -1.6       74.6     501.12        2.4 
       413        300        1.8       -5.2       70.9     380.16        9.4 
       414        300        4.9       -4.1       85.5     380.16        6.8 
       415        300        7.3        1.4         69     423.36        1.4 
       416        300        2.1       -2.6       90.1      388.8          1 
       417        300          7       -0.4       75.1     336.96        7.6 
       418        300        4.9       -0.5       84.9      259.2       0.09 
       419        300        5.4       -0.9       85.1     371.52        0.6 
       420        300          6        1.9       89.6     267.84        1.3 
       421        300        7.6       -1.7       85.3     138.24        6.4 
       422        300        8.2       -2.7       85.3     181.44        8.9 
       423        300        5.2        0.1       94.8     164.16       0.09 
       424        300        4.7        1.6         95        216       0.09 
       425        300        6.7       -1.9       85.5     423.36          6 
       426        300          5        0.8       93.4     509.76       0.09 
       427        300        4.6        0.5       81.6     509.76        1.8 
       428        300        4.5       -0.2       90.1     414.72        2.7 
       429        300        5.4       -0.3         83     250.56        3.8 
       430        300        4.5       -3.7       93.6     354.24        0.3 
       431        300        8.9        3.6         82     423.36          2 
       432        300       15.3        4.1       62.5     501.12       10.1 
       433        300       10.4        5.4         76     181.44        1.2 
       434        300       12.6       -1.1       83.3     241.92          4 
       435        300        8.4        0.8       86.8     181.44        0.4 
       436        300        8.2        1.2       82.6      345.6        4.4 
       437        300        7.2       -1.7       80.5     354.24        6.5 
       438        300        7.8        1.3       75.4      302.4        0.3 
       439        300        7.4        3.9         79      345.6        0.1 
       440        300       10.6        3.6         74     457.92        6.7 
       441        300       13.5        2.5       54.5     440.64       11.3 
       442        300       12.5        1.4       43.5      302.4       11.5 
       443        300       11.4       -4.2       56.5     138.24       11.2 
       444        300       10.7       -2.1       52.9     285.12        6.3 
       445        300        7.6        0.2       79.4     285.12        1.2 
       446        300        3.8       -3.7       50.9     285.12         11 
       447        300        8.7       -1.2       48.3     371.52         11 
       448        300       12.7       -1.9         61     224.64       11.1 
       449        300       14.9       -1.2       67.8     285.12          7 
       450        300       10.1        5.8       84.6      259.2       0.09 
       451        300        9.5        4.1         93      129.6       0.09 
       452        300        7.5        1.5       82.6     164.16        0.6 
       453        300        8.6        0.8       90.9     414.72       0.09 
       454        300          8          3       85.3      734.4        2.2 
       455        300        5.6        0.4       90.5     527.04        0.2 
       456        300        6.9        0.9         90     414.72        3.2 
       457        300          6       -0.1       76.1     380.16        6.6 
       458        300        8.4        0.9       75.5     311.04        6.8 
       459        300        7.2       -0.8       78.6     328.32        5.3 
       460        300        5.3        0.2       71.1     293.76        0.6 
       461        300        6.1       -0.5       81.9      302.4          2 
       462        300        8.9       -1.2       82.5      302.4        3.4 
       463        300       10.9          5       83.1     285.12        0.8 
       464        300       12.7       -2.5       60.5      302.4       11.8 
       465        300       18.5        1.5       53.9      172.8       12.6 
       466        300       20.2        3.9       60.5     293.76       11.7 
       467        300       14.8        5.1       60.4     457.92        8.5 
       468        300        9.7        3.5       62.4     552.96          5 
       469        300        9.7          2         68     457.92        4.7 
       470        300       16.5        5.7       73.3     440.64        3.6 
       471        300       14.7        4.4       61.9     414.72        8.7 
       472        300       10.4        1.9       69.8     354.24        6.8 