Pcp_File_Version=4
      1
Welcome to HYDRUS-1D
  
   NOBB     MIT iWeight
    144      10       1
  lWatF  lChemF    NMat   lTempF
      t       f       4       f
  Model   Hysteresis
      3       0
    thr     ths    Alfa       n         Ks       l
  0.025    0.35    0.01    2.35       1360     0.5 
      0       0       1       1          0       0 
      0       0    0.01     1.1        200       0 
   0.08    0.45     0.2       4       7500       1 
    thr     ths    Alfa       n         Ks       l
  0.025     0.4 0.00155    3.72      0.123     0.5 
      0       0       1       1          1       0 
      0       0  0.0001     1.1        0.1       0 
   0.08    0.43    0.01       4         50       1 
    thr     ths    Alfa       n         Ks       l
  0.025    0.35   0.012    3.65       3740     0.5 
      0       0       1       1          0       0 
      0       0    0.01     1.1        250      -5 
   0.08    0.43     0.2       4      10000       5 
    thr     ths    Alfa       n         Ks       l
  0.025     0.4  0.0084    2.21        240     0.5 
      0       0       1       1          0       0 
      0       0   0.001     1.1         50       0 
   0.05    0.43     0.2       4      10000       1 
      HO(N)         FOS   ITYPE(N) POS     WTS
        1231     0.186992     2     1        1 
        1231    0.0844333     2     2        1 
        1231     0.374592     2     3        1 
        1231    0.0653083     2     4        1 
        1261      0.12305     2     1        1 
        1261    0.0657667     2     2        1 
        1261     0.376892     2     3        1 
        1261    0.0650417     2     4        1 
        1291     0.130508     2     1        1 
        1291     0.083575     2     2        1 
        1291     0.389158     2     3        1 
        1291     0.064925     2     4        1 
        1321     0.134142     2     1        1 
        1321    0.0798833     2     2        1 
        1321     0.387117     2     3        1 
        1321     0.068675     2     4        1 
        1351     0.129408     2     1        1 
        1351    0.0765167     2     2        1 
        1351     0.388167     2     3        1 
        1351    0.0698333     2     4        1 
        1381     0.135283     2     1        1 
        1381       0.0816     2     2        1 
        1381     0.384542     2     3        1 
        1381    0.0704833     2     4        1 
        1411     0.136225     2     1        1 
        1411    0.0771833     2     2        1 
        1411     0.396167     2     3        1 
        1411    0.0696083     2     4        1 
        1441     0.140883     2     1        1 
        1441    0.0801083     2     2        1 
        1441     0.397083     2     3        1 
        1441    0.0749333     2     4        1 
        1471     0.148075     2     1        1 
        1471    0.0863667     2     2        1 
        1471     0.397825     2     3        1 
        1471     0.079725     2     4        1 
        1501     0.145275     2     1        1 
        1501    0.0819167     2     2        1 
        1501     0.395558     2     3        1 
        1501    0.0865417     2     4        1 
        1531    0.0597083     2     1        1 
        1531    0.0725917     2     2        1 
        1531     0.389833     2     3        1 
        1531    0.0860583     2     4        1 
        1561     0.116642     2     1        1 
        1561    0.0842917     2     2        1 
        1561     0.388367     2     3        1 
        1561    0.0783083     2     4        1 
        1591    0.0827167     2     1        1 
        1591    0.0717917     2     2        1 
        1591     0.382283     2     3        1 
        1591     0.073325     2     4        1 
        1621    0.0299583     2     1        1 
        1621    0.0561917     2     2        1 
        1621     0.328842     2     3        1 
        1621    0.0723917     2     4        1 
        1651     0.023725     2     1        1 
        1651    0.0478833     2     2        1 
        1651     0.293958     2     3        1 
        1651      0.06745     2     4        1 
        1681    0.0311833     2     1        1 
        1681    0.0486333     2     2        1 
        1681     0.315267     2     3        1 
        1681    0.0618333     2     4        1 
        1711     0.031975     2     1        1 
        1711      0.04715     2     2        1 
        1711       0.2805     2     3        1 
        1711     0.056675     2     4        1 
        1741    0.0266583     2     1        1 
        1741    0.0452917     2     2        1 
        1741     0.269658     2     3        1 
        1741    0.0528333     2     4        1 
        1771       0.0279     2     1        1 
        1771    0.0455583     2     2        1 
        1771     0.266533     2     3        1 
        1771    0.0498667     2     4        1 
        1801       0.0408     2     1        1 
        1801    0.0515333     2     2        1 
        1801      0.26665     2     3        1 
        1801    0.0472833     2     4        1 
        1831    0.0467167     2     1        1 
        1831       0.0564     2     2        1 
        1831     0.328092     2     3        1 
        1831    0.0457917     2     4        1 
        1861    0.0514667     2     1        1 
        1861    0.0584167     2     2        1 
        1861     0.360808     2     3        1 
        1861    0.0448083     2     4        1 
        1891    0.0543417     2     1        1 
        1891    0.0590167     2     2        1 
        1891     0.357542     2     3        1 
        1891    0.0438167     2     4        1 
        1921    0.0542833     2     1        1 
        1921    0.0580167     2     2        1 
        1921       0.3478     2     3        1 
        1921    0.0427083     2     4        1 
        1951    0.0382167     2     1        1 
        1981    0.0371167     2     1        1 
        2011      0.02925     2     1        1 
        2041    0.0277417     2     1        1 
        2071       0.0348     2     1        1 
        2101     0.068675     2     1        1 
        2131     0.083375     2     1        1 
        2161     0.096475     2     1        1 
        2191    0.0993583     2     1        1 
        2221     0.131408     2     1        1 
        2251     0.113158     2     1        1 
        2281    0.0937667     2     1        1 
        1951    0.0535167     2     2        1 
        1981       0.0548     2     2        1 
        2011     0.052375     2     2        1 
        2041    0.0474667     2     2        1 
        2071    0.0522083     2     2        1 
        2101    0.0596167     2     2        1 
        2131    0.0602333     2     2        1 
        2161     0.065075     2     2        1 
        2191    0.0670667     2     2        1 
        2221    0.0657917     2     2        1 
        2251      0.07175     2     2        1 
        2281       0.0737     2     2        1 
        1951       0.3117     2     3        1 
        1981     0.330058     2     3        1 
        2011     0.276967     2     3        1 
        2041     0.265283     2     3        1 
        2071     0.266117     2     3        1 
        2101     0.281158     2     3        1 
        2131     0.352133     2     3        1 
        2161     0.368125     2     3        1 
        2191     0.367192     2     3        1 
        2221     0.367283     2     3        1 
        2251     0.370192     2     3        1 
        2281     0.370625     2     3        1 
        1951    0.0422833     2     4        1 
        1981    0.0415417     2     4        1 
        2011    0.0408667     2     4        1 
        2041    0.0402917     2     4        1 
        2071    0.0400417     2     4        1 
        2101    0.0397333     2     4        1 
        2131       0.0398     2     4        1 
        2161       0.0407     2     4        1 
        2191    0.0463083     2     4        1 
        2221    0.0496167     2     4        1 
        2251    0.0511417     2     4        1 
        2281       0.0533     2     4        1 
end*** END OF INPUT FILE 'FIT.IN' **********************************
